** written by FreeCAD inp file writer for CalculiX,Abaqus meshes
** highest dimension mesh elements only.

** Nodes
*Node, NSET=Nall
1, 0, 0, 0
2, 200, 0, 0
3, 200, 50, 0
4, 170, 50, 0
5, 150, 50, 0
6, 0, 50, 0
7, 5, 0, 0
8, 10, 0, 0
9, 15, 0, 0
10, 20, 0, 0
11, 25, 0, 0
12, 30, 0, 0
13, 35, 0, 0
14, 40, 0, 0
15, 45, 0, 0
16, 50, 0, 0
17, 55, 0, 0
18, 60, 0, 0
19, 65, 0, 0
20, 70, 0, 0
** ... 535 like lines cut
**

** NODE SETS
*NSET, nset=ndsMid
1,
2,
7,
8,
9,
10,
11,
12,
13,
14,
15,
16,
17,
18,
19,
20,
21,
22,
23,
24,
** ... 21 like lines cut

*NSET, nset= ndsXin
2,
3,
86,
87,
88,
89,
90,
91,
92,
93,
94

*NSET, nset=ndsQht
4,
5,
116,
117,
118


** Face elements
*Element, TYPE=CPE4, ELSET=Eall
101, 471, 487, 485, 509
102, 487, 471, 374, 431
103, 507, 443, 486, 510
104, 486, 514, 474, 501
105, 487, 507, 510, 485
106, 509, 478, 492, 544
107, 474, 514, 517, 531
108, 492, 422, 511, 544
109, 206, 118, 5, 289
110, 470, 541, 542, 516
111, 528, 511, 512, 473
112, 325, 400, 432, 426
113, 512, 513, 536, 473
114, 513, 515, 475, 536
115, 515, 545, 527, 475
116, 517, 554, 493, 531
117, 554, 518, 525, 493
118, 287, 235, 266, 230
119, 546, 547, 526, 464
120, 547, 548, 476, 526
** ... 380 like lines cut

** ELSET (Q in film)
*ELSET, ELSET=elsQht
109,358,380,484

***********************************************************
** Materials
** Young's modulus unit is MPa = N/mm2
** Thermal conductivity unit is kW/mm/K = t*mm/K*s^3
** Specific Heat unit is kJ/t/K = mm^2/s^2/K
** SolidMaterial
*MATERIAL, NAME=SolidMaterial
*ELASTIC
210000, 0.300
*CONDUCTIVITY
1.26e-4
*EXPANSION
2.400e-05
*SPECIFIC HEAT
3.900e-3

***********************************************************
** Initial temperature constraint
*INITIAL CONDITIONS,TYPE=TEMPERATURE
Nall,300.0

***********************************************************
** Physical Constants
*PHYSICAL CONSTANTS,ABSOLUTE ZERO=-273.15,STEFAN BOLTZMANN=5.669E-8

***********************************************************
** Sections
*solid SECTION, ELSET=Eall, MATERIAL=SolidMaterial
1

***********************************************************
** At least one step is needed to run an CalculiX analysis of FreeCAD
*STEP, INC=2000
*HEAT TRANSFER,STEADY STATE
1.,1.

** BOUNDARY VALUES: (Temperatures)
***Boundary
**ndsMid,11,11,300
*Boundary
ndsXin,11,11,250
*Boundary
ndsQht,11,11,500

***FILM
**elsQht,F2,-12,500

***********************************************************
** Outputs --> frd file
** written by write_outputs_types function
*NODE FILE, OUTPUT=2d
NT
***EL FILE
**S, E

*END STEP 

***********************************************************