**
**
** COOK MEMBRANE USING CPE8R ELEMENTS
**
**
*Node, nset = nall
    1,  0., 44.00000, 0. 
    2,  3., 45.0000, 0. 
    3,  6., 46.00000, 0. 
    4,  9., 47.00000, 0. 
    5, 12., 48.00000, 0. 
    6, 15., 49.00000, 0. 
    7, 18., 50.00000, 0. 
    8, 21., 51.00000, 0. 
    9, 24., 52.00000, 0. 
   10, 27., 53.00000, 0. 
   11, 30., 54.00000, 0. 
   12, 33., 55.00000, 0. 
   13, 36., 56.00000, 0. 
   14, 39., 57.00000, 0. 
   15, 42., 58.00000, 0. 
   16, 45., 59.00000, 0. 
   17, 48., 60.00000, 0. 
   18,  0., 41.2500, 0. 
   19,  6., 43.46875, 0. 
   20, 12., 45.68750, 0. 
** ... 205 like lines cut
*Element, elset=eall,type=CPE8R
    1,  27,  29,   3,   1,  28,  19,   2,  18 
    2,  29,  31,   5,   3,  30,  20,   4,  19 
    3,  31,  33,   7,   5,  32,  21,   6,  20 
    4,  33,  35,   9,   7,  34,  22,   8,  21 
    5,  35,  37,  11,   9,  36,  23,  10,  22 
    6,  37,  39,  13,  11,  38,  24,  12,  23 
    7,  39,  41,  15,  13,  40,  25,  14,  24 
    8,  41,  43,  17,  15,  42,  26,  16,  25 
    9,  53,  55,  29,  27,  54,  45,  28,  44 
   10,  55,  57,  31,  29,  56,  46,  30,  45 
   11,  57,  59,  33,  31,  58,  47,  32,  46 
   12,  59,  61,  35,  33,  60,  48,  34,  47 
   13,  61,  63,  37,  35,  62,  49,  36,  48 
   14,  63,  65,  39,  37,  64,  50,  38,  49 
   15,  65,  67,  41,  39,  66,  51,  40,  50 
   16,  67,  69,  43,  41,  68,  52,  42,  51 
   17,  79,  81,  55,  53,  80,  71,  54,  70 
   18,  81,  83,  57,  55,  82,  72,  56,  71 
   19,  83,  85,  59,  57,  84,  73,  58,  72 
   20,  85,  87,  61,  59,  86,  74,  60,  73 
** ... 44 like lines cut
**
**
**
*Nset, nset=fixed 
1,18,27,44,53,70,79,96,105,122,131,148,157,174,183,200,
209
** CORNER NODES
*Nset, nset=loadC1
17,225
*Nset, nset=loadC2
43,69,95,121,147,173,199
** MIDPOINT NODES
*Nset, nset=loadM 
26,52,78,104,130,156,182,208
**
**
** MATERIAL DEFINITION
*Solid Section, elset=eall, material=linmat
1.
**
** MATERIAL
*Material, name=linmat
*elastic
200000., 0.33
*plastic
30.,0
1030.,1
**
**
** FIXED BCS
*Boundary
fixed,1,2
**
**
*STEP, nlgeom, inc=1000
*Static,
0.001,1,0.0001,1.
**
** BCs
*Boundary
loadC1, 2, 2, 10
*Boundary
loadC2, 2, 2, 10
*Boundary
loadM, 2, 2, 10
**
**
** HISTORY OUTPUT
*Output, field
*ELement output
S,E,PEEQ
*NODE output
U
** END OF STEP
*End step
**